  20
        -33.88022707
 C          2.2465886486        0.0937604949       -0.2428175975
 C          0.8882868953       -0.6144953132       -0.2798710900
 N         -0.0244700131        0.0324977194       -1.0264060539
 C         -1.4134878262       -0.3388276786       -1.0074390606
 C         -2.1279327560        0.2409051020        0.2031272379
 O         -1.5953740026        0.9248676534        1.0436049914
 N          2.0490557880        1.5209859254       -0.4683781941
 O          0.6793818287       -1.6904038534        0.2625089566
 O         -3.4064986959       -0.0950592978        0.2280046643
 H          1.5929260942        1.9285835952        0.3432968242
 H          2.9476597511        1.9788174232       -0.5710561218
 C          2.9818470750       -0.2479935303        1.0563140075
 H          2.8205461229       -0.2978649261       -1.0929894146
 H          0.2358665495        0.9707307619       -1.3090566511
 H         -1.4823218951       -1.4293375154       -0.9374033663
 H         -1.9131034773       -0.0079662024       -1.9190326509
 H         -3.8750248285        0.2620703552        1.0051126229
 H          2.4440545752        0.1678611476        1.9070842091
 H          3.0274220954       -1.3265127138        1.1782668246
 H          3.9921745211        0.1538328796        1.0418068784
